/*--------------------------------*- C++ -*----------------------------------*\
| =========                 |                                                 |
| \\      /  F ield         | OpenFOAM: The Open Source CFD Toolbox           |
|  \\    /   O peration     | Version:  2.2.1                                 |
|   \\  /    A nd           | Web:      www.OpenFOAM.org                      |
|    \\/     M anipulation  |                                                 |
\*---------------------------------------------------------------------------*/
FoamFile
{
    version     2.0;
    format      ascii;
    class       volVectorField;
    location    "0";
    object      U;
}
// * * * * * * * * * * * * * * * * * * * * * * * * * * * * * * * * * * * * * //

#include        "../system/runConditions"

dimensions      [0 1 -1 0 0 0 0];

internalField   uniform ($flowVelocity 0 0);

boundaryField
{
    inlet
    {
        // 预定义入口边界条件
        type       prescribedPipeInlet;

        // （可选参数，默认为 exponential）边界层近似类型
        approximationType parabolic;

        // 管半径
        R	$Rpipe;

        // 来流速度
        flowSpeed	$flowVelocity;

        // （可选，默认为 origin）用来决定每个面径向距离的管中心点
        centrepoint	(0 0 0);

        // 入口边界层厚度，径向距离的函数
        deltaByR $deltaByR;

        // （可选，默认为 0 ），压力梯度系数（用于Polhausen边界层近似）
        lambda 0.;

        // 假速度值，会被边界条件覆盖，只用于初始化
        value		$internalField;
    }
    outlet
    {
        type            pressureInletOutletVelocity;
        phi             phi;
        value           $internalField;
    }
    pipe
    {
    	type fixedValue;
    	value uniform (0 0 0);
    }
    "symmetry.*"
    {
        type            symmetryPlane;
    }
}


// ************************************************************************* //
